*Heading
** Job name: singleNotchShear3DCoarse Model name: Model-1
** Generated by: Abaqus/CAE 2020
*Preprint, echo=NO, model=NO, history=NO, contact=NO
**
** PARTS
**
*Part, name=Part-1
*Node
      1,           1.,          0.5,           0.
      2,           1.,           0.,           0.
      3,           0.,           0.,           0.
      4,          0.5,          0.5,           0.
      5,           0.,  0.499000013,           0.
      6,           1.,          0.5,  0.200000003
      7,          0.5,          0.5,  0.200000003
      8,           0.,  0.499000013,  0.200000003
      9,           0.,           0.,  0.200000003
     10,           1.,           0.,  0.200000003
     11,           0.,  0.500999987,           0.
     12,           0.,           1.,           0.
     13,           1.,           1.,           0.
     14,           1.,           1.,  0.200000003
     15,           0.,           1.,  0.200000003
     16,           0.,  0.500999987,  0.200000003
     17,           1.,  0.461538464,           0.
     18,           1.,  0.423076928,           0.
     19,           1.,  0.384615391,           0.
     20,           1.,  0.346153855,           0.
** ... 4432 like lines cut
*Element, type=C3D8
   1,   77,  317,   17,    1, 1113, 2053, 1172,  109
   2,  317,  318,   18,   17, 2053, 2054, 1171, 1172
   3,  318,  319,   19,   18, 2054, 2055, 1170, 1171
   4,  319,  320,   20,   19, 2055, 2056, 1169, 1170
   5,  320,  321,   21,   20, 2056, 2057, 1168, 1169
   6,  321,  322,   22,   21, 2057, 2058, 1167, 1168
   7,  322,  323,   23,   22, 2058, 2059, 1166, 1167
   8,  323,  324,   24,   23, 2059, 2060, 1165, 1166
   9,  324,  325,   25,   24, 2060, 2061, 1164, 1165
  10,  325,  326,   26,   25, 2061, 2062, 1163, 1164
  11,  326,  327,   27,   26, 2062, 2063, 1162, 1163
  12,  327,  328,   28,   27, 2063, 2064, 1161, 1162
  13,  328,   29,    2,   28, 2064, 1037,  102, 1161
  14,   76,  329,  317,   77, 1114, 2065, 2053, 1113
  15,  329,  330,  318,  317, 2065, 2066, 2054, 2053
  16,  330,  331,  319,  318, 2066, 2067, 2055, 2054
  17,  331,  332,  320,  319, 2067, 2068, 2056, 2055
  18,  332,  333,  321,  320, 2068, 2069, 2057, 2056
  19,  333,  334,  322,  321, 2069, 2070, 2058, 2057
  20,  334,  335,  323,  322, 2070, 2071, 2059, 2058
** ... 3360 like lines cut
*Nset, nset=Set-1, generate
    1,  4452,     1
*Elset, elset=Set-1, generate
    1,  3380,     1
** Section: Section-1
*Solid Section, elset=Set-1, material=Material-1
,
*End Part
**  
**
** ASSEMBLY
**
*Assembly, name=Assembly
**  
*Instance, name=Part-1-1, part=Part-1
*End Instance
**  
*Nset, nset=Set-1, instance=Part-1-1
    2,    3,    9,   10,   29,   30,   31,   32,   33,   34,   35,   36,   37,   38,   39,   40
   41,   42,   43,   44,   45,   46,   47,   48,   49,   50,   51,   52,   53,   94,   95,   96
   97,  102,  103,  104,  105,  146,  147,  148,  149,  150,  151,  152,  153,  154,  155,  156
  157,  158,  159,  160,  161,  162,  163,  164,  165,  166,  167,  168,  169,  170, 1013, 1014
 1015, 1016, 1017, 1018, 1019, 1020, 1021, 1022, 1023, 1024, 1025, 1026, 1027, 1028, 1029, 1030
 1031, 1032, 1033, 1034, 1035, 1036, 1037, 1038, 1039, 1040, 1041, 1042, 1043, 1044, 1045, 1046
 1047, 1048, 1049, 1050, 1051, 1052, 1053, 1054, 1055, 1056, 1057, 1058, 1059, 1060, 1061, 1062
 1063, 1064, 1065, 1066, 1067, 1068, 1069, 1070, 1071, 1072, 1073, 1074, 1075, 1076, 1077, 1078
 1079, 1080, 1081, 1082, 1083, 1084, 1085, 1086, 1087, 1088, 1089, 1090, 1091, 1092, 1093, 1094
 1095, 1096, 1097, 1098, 1099, 1100, 1101, 1102, 1103, 1104, 1105, 1106, 1107, 1108, 1109, 1110
 1111, 1112
*Elset, elset=Set-1, instance=Part-1-1, generate
   13,  1690,    13
*Nset, nset=Set-2, instance=Part-1-1
   12,   13,   14,   15,  207,  208,  209,  210,  211,  212,  213,  214,  215,  216,  217,  218
  219,  220,  221,  222,  223,  224,  225,  226,  227,  228,  229,  230,  231,  248,  249,  250
  251,  252,  253,  254,  255,  268,  269,  270,  271,  272,  273,  274,  275,  276,  277,  278
  279,  280,  281,  282,  283,  284,  285,  286,  287,  288,  289,  290,  291,  292, 1953, 1954
 1955, 1956, 1957, 1958, 1959, 1960, 1961, 1962, 1963, 1964, 1965, 1966, 1967, 1968, 1969, 1970
 1971, 1972, 1973, 1974, 1975, 1976, 1977, 1978, 1979, 1980, 1981, 1982, 1983, 1984, 1985, 1986
 1987, 1988, 1989, 1990, 1991, 1992, 1993, 1994, 1995, 1996, 1997, 1998, 1999, 2000, 2001, 2002
 2003, 2004, 2005, 2006, 2007, 2008, 2009, 2010, 2011, 2012, 2013, 2014, 2015, 2016, 2017, 2018
 2019, 2020, 2021, 2022, 2023, 2024, 2025, 2026, 2027, 2028, 2029, 2030, 2031, 2032, 2033, 2034
 2035, 2036, 2037, 2038, 2039, 2040, 2041, 2042, 2043, 2044, 2045, 2046, 2047, 2048, 2049, 2050
 2051, 2052
*Elset, elset=Set-2, instance=Part-1-1
 2003, 2004, 2005, 2006, 2007, 2008, 2009, 2010, 2011, 2012, 2013, 2014, 2015, 2016, 2017, 2018
 2019, 2020, 2021, 2022, 2023, 2024, 2025, 2026, 2027, 2028, 2341, 2342, 2343, 2344, 2345, 2346
 2347, 2348, 2349, 2350, 2351, 2352, 2353, 2354, 2355, 2356, 2357, 2358, 2359, 2360, 2361, 2362
 2363, 2364, 2365, 2366, 2679, 2680, 2681, 2682, 2683, 2684, 2685, 2686, 2687, 2688, 2689, 2690
 2691, 2692, 2693, 2694, 2695, 2696, 2697, 2698, 2699, 2700, 2701, 2702, 2703, 2704, 3017, 3018
 3019, 3020, 3021, 3022, 3023, 3024, 3025, 3026, 3027, 3028, 3029, 3030, 3031, 3032, 3033, 3034
 3035, 3036, 3037, 3038, 3039, 3040, 3041, 3042, 3355, 3356, 3357, 3358, 3359, 3360, 3361, 3362
 3363, 3364, 3365, 3366, 3367, 3368, 3369, 3370, 3371, 3372, 3373, 3374, 3375, 3376, 3377, 3378
 3379, 3380
*Nset, nset=Set-3, instance=Part-1-1
    1,    2,    6,   10,   13,   14,   17,   18,   19,   20,   21,   22,   23,   24,   25,   26
   27,   28,  102,  103,  104,  105,  106,  107,  108,  109,  171,  172,  173,  174,  175,  176
  177,  178,  179,  180,  181,  182,  232,  233,  234,  235,  236,  237,  238,  239,  240,  241
  242,  243,  252,  253,  254,  255,  256,  257,  258,  259,  260,  261,  262,  263,  264,  265
  266,  267, 1161, 1162, 1163, 1164, 1165, 1166, 1167, 1168, 1169, 1170, 1171, 1172, 1173, 1174
 1175, 1176, 1177, 1178, 1179, 1180, 1181, 1182, 1183, 1184, 1185, 1186, 1187, 1188, 1189, 1190
 1191, 1192, 1193, 1194, 1195, 1196, 1197, 1198, 1199, 1200, 1201, 1202, 1203, 1204, 1205, 1206
 1207, 1208, 1905, 1906, 1907, 1908, 1909, 1910, 1911, 1912, 1913, 1914, 1915, 1916, 1917, 1918
 1919, 1920, 1921, 1922, 1923, 1924, 1925, 1926, 1927, 1928, 1929, 1930, 1931, 1932, 1933, 1934
 1935, 1936, 1937, 1938, 1939, 1940, 1941, 1942, 1943, 1944, 1945, 1946, 1947, 1948, 1949, 1950
 1951, 1952
*Elset, elset=Set-3, instance=Part-1-1
    1,    2,    3,    4,    5,    6,    7,    8,    9,   10,   11,   12,   13,  339,  340,  341
  342,  343,  344,  345,  346,  347,  348,  349,  350,  351,  677,  678,  679,  680,  681,  682
  683,  684,  685,  686,  687,  688,  689, 1015, 1016, 1017, 1018, 1019, 1020, 1021, 1022, 1023
 1024, 1025, 1026, 1027, 1353, 1354, 1355, 1356, 1357, 1358, 1359, 1360, 1361, 1362, 1363, 1364
 1365, 1691, 1717, 1743, 1769, 1795, 1821, 1847, 1873, 1899, 1925, 1951, 1977, 2003, 2029, 2055
 2081, 2107, 2133, 2159, 2185, 2211, 2237, 2263, 2289, 2315, 2341, 2367, 2393, 2419, 2445, 2471
 2497, 2523, 2549, 2575, 2601, 2627, 2653, 2679, 2705, 2731, 2757, 2783, 2809, 2835, 2861, 2887
 2913, 2939, 2965, 2991, 3017, 3043, 3069, 3095, 3121, 3147, 3173, 3199, 3225, 3251, 3277, 3303
 3329, 3355
*Nset, nset=Set-4, instance=Part-1-1
    3,    5,    8,    9,   11,   12,   15,   16,   54,   55,   56,   57,   58,   59,   60,   61
   62,   63,   64,   65,   90,   91,   92,   93,   94,   95,   96,   97,  134,  135,  136,  137
  138,  139,  140,  141,  142,  143,  144,  145,  195,  196,  197,  198,  199,  200,  201,  202
  203,  204,  205,  206,  244,  245,  246,  247,  248,  249,  250,  251,  293,  294,  295,  296
  297,  298,  299,  300,  301,  302,  303,  304,  917,  918,  919,  920,  921,  922,  923,  924
  925,  926,  927,  928,  929,  930,  931,  932,  933,  934,  935,  936,  937,  938,  939,  940
  941,  942,  943,  944,  945,  946,  947,  948,  949,  950,  951,  952,  953,  954,  955,  956
  957,  958,  959,  960,  961,  962,  963,  964, 1857, 1858, 1859, 1860, 1861, 1862, 1863, 1864
 1865, 1866, 1867, 1868, 1869, 1870, 1871, 1872, 1873, 1874, 1875, 1876, 1877, 1878, 1879, 1880
 1881, 1882, 1883, 1884, 1885, 1886, 1887, 1888, 1889, 1890, 1891, 1892, 1893, 1894, 1895, 1896
 1897, 1898, 1899, 1900, 1901, 1902, 1903, 1904
*Elset, elset=Set-4, instance=Part-1-1
  326,  327,  328,  329,  330,  331,  332,  333,  334,  335,  336,  337,  338,  664,  665,  666
  667,  668,  669,  670,  671,  672,  673,  674,  675,  676, 1002, 1003, 1004, 1005, 1006, 1007
 1008, 1009, 1010, 1011, 1012, 1013, 1014, 1340, 1341, 1342, 1343, 1344, 1345, 1346, 1347, 1348
 1349, 1350, 1351, 1352, 1678, 1679, 1680, 1681, 1682, 1683, 1684, 1685, 1686, 1687, 1688, 1689
 1690, 1716, 1742, 1768, 1794, 1820, 1846, 1872, 1898, 1924, 1950, 1976, 2002, 2028, 2054, 2080
 2106, 2132, 2158, 2184, 2210, 2236, 2262, 2288, 2314, 2340, 2366, 2392, 2418, 2444, 2470, 2496
 2522, 2548, 2574, 2600, 2626, 2652, 2678, 2704, 2730, 2756, 2782, 2808, 2834, 2860, 2886, 2912
 2938, 2964, 2990, 3016, 3042, 3068, 3094, 3120, 3146, 3172, 3198, 3224, 3250, 3276, 3302, 3328
 3354, 3380
*Elset, elset=_Surf-1_S3, internal, instance=Part-1-1
 2003, 2004, 2005, 2006, 2007, 2008, 2009, 2010, 2011, 2012, 2013, 2014, 2015, 2016, 2017, 2018
 2019, 2020, 2021, 2022, 2023, 2024, 2025, 2026, 2027, 2028, 2341, 2342, 2343, 2344, 2345, 2346
 2347, 2348, 2349, 2350, 2351, 2352, 2353, 2354, 2355, 2356, 2357, 2358, 2359, 2360, 2361, 2362
 2363, 2364, 2365, 2366, 2679, 2680, 2681, 2682, 2683, 2684, 2685, 2686, 2687, 2688, 2689, 2690
 2691, 2692, 2693, 2694, 2695, 2696, 2697, 2698, 2699, 2700, 2701, 2702, 2703, 2704, 3017, 3018
 3019, 3020, 3021, 3022, 3023, 3024, 3025, 3026, 3027, 3028, 3029, 3030, 3031, 3032, 3033, 3034
 3035, 3036, 3037, 3038, 3039, 3040, 3041, 3042, 3355, 3356, 3357, 3358, 3359, 3360, 3361, 3362
 3363, 3364, 3365, 3366, 3367, 3368, 3369, 3370, 3371, 3372, 3373, 3374, 3375, 3376, 3377, 3378
 3379, 3380
*Surface, type=ELEMENT, name=Surf-1
_Surf-1_S3, S3
*Elset, elset=_Surf-2_S4, internal, instance=Part-1-1, generate
   13,  1690,    13
*Surface, type=ELEMENT, name=Surf-2
_Surf-2_S4, S4
*Elset, elset=_Surf-3_S4, internal, instance=Part-1-1, generate
 1716,  3380,    26
*Elset, elset=_Surf-3_S3, internal, instance=Part-1-1
  326,  327,  328,  329,  330,  331,  332,  333,  334,  335,  336,  337,  338,  664,  665,  666
  667,  668,  669,  670,  671,  672,  673,  674,  675,  676, 1002, 1003, 1004, 1005, 1006, 1007
 1008, 1009, 1010, 1011, 1012, 1013, 1014, 1340, 1341, 1342, 1343, 1344, 1345, 1346, 1347, 1348
 1349, 1350, 1351, 1352, 1678, 1679, 1680, 1681, 1682, 1683, 1684, 1685, 1686, 1687, 1688, 1689
 1690,
*Surface, type=ELEMENT, name=Surf-3
_Surf-3_S4, S4
_Surf-3_S3, S3
*Elset, elset=_Surf-4_S5, internal, instance=Part-1-1
    1,    2,    3,    4,    5,    6,    7,    8,    9,   10,   11,   12,   13,  339,  340,  341
  342,  343,  344,  345,  346,  347,  348,  349,  350,  351,  677,  678,  679,  680,  681,  682
  683,  684,  685,  686,  687,  688,  689, 1015, 1016, 1017, 1018, 1019, 1020, 1021, 1022, 1023
 1024, 1025, 1026, 1027, 1353, 1354, 1355, 1356, 1357, 1358, 1359, 1360, 1361, 1362, 1363, 1364
 1365,
*Elset, elset=_Surf-4_S6, internal, instance=Part-1-1, generate
 1691,  3355,    26
*Surface, type=ELEMENT, name=Surf-4
_Surf-4_S5, S5
_Surf-4_S6, S6
*End Assembly
** 
** MATERIALS
** 
*Material, name=Material-1
*Elastic
2000., 0.3
** ----------------------------------------------------------------
** 
** STEP: Step-1
** 
*Step, name=Step-1, nlgeom=NO
*Static
1., 1., 1e-05, 1.
** 
** BOUNDARY CONDITIONS
** 
** Name: BC-1 Type: Displacement/Rotation
*Boundary
Set-1, 1, 1
Set-1, 2, 2
Set-1, 3, 3
** Name: BC-2 Type: Displacement/Rotation
*Boundary
Set-2, 1, 1, 1.
Set-2, 2, 2
Set-2, 3, 3
** Name: BC-3 Type: Displacement/Rotation
*Boundary
Set-3, 2, 2
Set-3, 3, 3
** Name: BC-4 Type: Displacement/Rotation
*Boundary
Set-4, 2, 2
Set-4, 3, 3
** 
** OUTPUT REQUESTS
** 
*Restart, write, frequency=0
** 
** FIELD OUTPUT: F-Output-1
** 
*Output, field, variable=PRESELECT
** 
** HISTORY OUTPUT: H-Output-1
** 
*Output, history, variable=PRESELECT
*End Step
