*Heading
** Job name: singleNotch Model name: singleNotch
** Generated by: Abaqus/CAE 2020
*Preprint, echo=NO, model=NO, history=NO, contact=NO
**
** PARTS
**
*Part, name=Part-1
*Node
      1,  0.439999998,  0.560000002
      2,  0.439999998,           1.
      3,           0.,           1.
      4,           0.,  0.560000002
      5,           0.,  0.529999971
      6,  0.439999998,  0.529999971
      7,  0.469999999,  0.560000002
      8,  0.469999999,           1.
      9,  0.439999998,  0.500000119
     10,           0.,  0.500001013
     11,           1.,  0.560000002
     12,           1.,           1.
     13,           1.,  0.500001013
     14,           1.,  0.529999971
     15,  0.469999999,  0.529999971
     16,          0.5,          0.5
     17,  0.469999999,   0.50000006
     18,  0.469999999,   0.49999994
     19,  0.469999999,  0.469999999
     20,           1.,  0.469999999
** ... 25009 like lines cut
*Element, type=CPE4
   1,    1,   33, 1913,  168
   2,   33,   34, 1914, 1913
   3,   34,   35, 1915, 1914
   4,   35,   36, 1916, 1915
   5,   36,   37, 1917, 1916
   6,   37,   38, 1918, 1917
   7,   38,   39, 1919, 1918
   8,   39,   40, 1920, 1919
   9,   40,   41, 1921, 1920
  10,   41,   42, 1922, 1921
  11,   42,   43, 1923, 1922
  12,   43,   44, 1924, 1923
  13,   44,   45, 1925, 1924
  14,   45,   46, 1926, 1925
  15,   46,   47, 1927, 1926
  16,   47,   48, 1928, 1927
  17,   48,   49, 1929, 1928
  18,   49,   50, 1930, 1929
  19,   50,   51, 1931, 1930
  20,   51,   52, 1932, 1931
** ... 24775 like lines cut
*Nset, nset=Set-8, generate
     1,  25029,      1
*Elset, elset=Set-8, generate
     1,  24795,      1
*Elset, elset=_Surf-1_S2, internal
   35,   70,  105,  140,  175,  210,  245,  280,  315,  350,  385,  420,  455,  490,  525,  560
  595,  630,  665,  700,  735,  770,  805,  840,  875,  910,  945,  980, 1015, 1050, 1085, 1120
 1155, 1190, 1225, 1330, 1365
*Elset, elset=_Surf-1_S4, internal, generate
 1436,  2871,    35
*Surface, type=ELEMENT, name=Surf-1
_Surf-1_S2, S2
_Surf-1_S4, S4
*Elset, elset=_Surf-3_S3, internal
  1191,  1192,  1193,  1194,  1195,  1196,  1197,  1198,  1199,  1200,  1201,  1202,  1203,  1204,  1205,  1206
  1207,  1208,  1209,  1210,  1211,  1212,  1213,  1214,  1215,  1216,  1217,  1218,  1219,  1220,  1221,  1222
  1223,  1224,  1225,  1434,  1435, 18564, 18565, 19756, 19757, 19758, 19759, 19760, 19761, 19762, 19763, 19764
 19765, 19766, 19767, 19768, 19769, 19770, 19771, 19772, 19773, 19774, 19775, 19776, 19777, 19778, 19779, 19780
 19781, 19782, 19783, 19784, 19785, 19786, 19787, 19788, 19789, 19790
*Elset, elset=_Surf-3_S4, internal
  1226,  1261, 19791, 19826
*Surface, type=ELEMENT, name=Surf-3
_Surf-3_S3, S3
_Surf-3_S4, S4
*Elset, elset=_Surf-2_S3, internal, generate
 18454,  18495,      1
*Elset, elset=_Surf-2_S4, internal
 18566, 18601, 18636, 18671, 18706, 18741, 18776, 18811, 18846, 18881, 18916, 18951, 18986, 19021, 19056, 19091
 19126, 19161, 19196, 19231, 19266, 19301, 19336, 19371, 19406, 19441, 19476, 19511, 19546, 19581, 19616, 19651
 19686, 19721, 19756, 24758, 24788
*Surface, type=ELEMENT, name=Surf-2
_Surf-2_S3, S3
_Surf-2_S4, S4
*Elset, elset=_Surf-4_S3, internal
  2871,  2872,  2873,  2874,  2875,  2876,  2877,  2878,  2879,  2880,  2881,  2882,  2883,  2884,  2885,  2886
  2887,  2888,  2889,  2890,  2891,  2892,  2893,  2894,  2895,  2896,  2897,  2898,  2899,  2900,  2901,  2902
  2903,  2904,  2905, 21567
*Elset, elset=_Surf-4_S1, internal
  2906,  2907,  2908,  2909,  2910,  2911,  2912,  2913,  2914,  2915,  2916,  2917,  2918,  2919,  2920,  2921
  2922,  2923,  2924,  2925, 20007, 22447, 24079, 24611
*Elset, elset=_Surf-4_S2, internal
 21480,
*Elset, elset=_Surf-4_S4, internal
  9966, 10319, 10672, 11025, 11378, 11731, 12084, 12437, 12790, 13143, 13496, 13849, 14202, 14555, 14908, 15261
 15614, 15967, 16320, 16673, 17026, 17068, 17110, 17152, 17194, 17236, 17278, 17320, 17362, 17404, 17446, 17488
 17530, 17572, 17614, 17656, 17698, 17740, 17782, 17824, 17866, 17908, 17950, 17992, 18034, 18076, 18118, 18160
 18202, 18244, 18286, 18328, 18370, 18412, 18454
*Surface, type=ELEMENT, name=Surf-4
_Surf-4_S3, S3
_Surf-4_S1, S1
_Surf-4_S2, S2
_Surf-4_S4, S4
** Section: Section-1
*Solid Section, elset=Set-8, material=Material-1
,
*End Part
**  
**
** ASSEMBLY
**
*Assembly, name=Assembly
**  
*Instance, name=Part-1-1, part=Part-1
*End Instance
**  
*Nset, nset=Set-1, instance=Part-1-1
   4,   5,   6, 169, 170, 171, 172, 173, 174, 175, 176, 177, 178, 179, 180, 181
 182, 183, 184, 185, 186, 187, 188, 189, 190, 191, 192, 193, 194, 195, 196, 197
 198, 199, 200, 201, 202, 204
*Elset, elset=Set-1, instance=Part-1-1
 1226, 1227, 1228, 1229, 1230, 1231, 1232, 1233, 1234, 1235, 1236, 1237, 1238, 1239, 1240, 1241
 1242, 1243, 1244, 1245, 1246, 1247, 1248, 1249, 1250, 1251, 1252, 1253, 1254, 1255, 1256, 1257
 1258, 1259, 1260, 1261, 1367, 1369, 1371, 1373, 1375, 1377, 1379, 1381, 1383, 1385, 1387, 1389
 1391, 1393, 1395, 1397, 1399, 1401, 1403, 1405, 1407, 1409, 1411, 1413, 1415, 1417, 1419, 1421
 1423, 1425, 1427, 1429, 1431, 1433, 1435
*Nset, nset=Set-2, instance=Part-1-1
   18,   26,   27, 1694, 1695, 1696, 1697, 1698, 1699, 1700, 1701, 1702, 1703, 1704, 1705, 1706
 1707, 1708, 1709, 1710, 1711, 1712, 1713, 1714, 1715, 1716, 1717, 1718, 1719, 1720, 1721, 1722
 1723, 1724, 1725, 1726, 1727, 1906
*Elset, elset=Set-2, instance=Part-1-1
 18497, 18499, 18501, 18503, 18505, 18507, 18509, 18511, 18513, 18515, 18517, 18519, 18521, 18523, 18525, 18527
 18529, 18531, 18533, 18535, 18537, 18539, 18541, 18543, 18545, 18547, 18549, 18551, 18553, 18555, 18557, 18559
 18561, 18563, 18565, 22304, 22318
*Nset, nset=Set-3, instance=Part-1-1
   4,   5,   6, 169, 170, 171, 172, 173, 174, 175, 176, 177, 178, 179, 180, 181
 182, 183, 184, 185, 186, 187, 188, 189, 190, 191, 192, 193, 194, 195, 196, 197
 198, 199, 200, 201, 202, 204
*Elset, elset=Set-3, instance=Part-1-1
 1226, 1227, 1228, 1229, 1230, 1231, 1232, 1233, 1234, 1235, 1236, 1237, 1238, 1239, 1240, 1241
 1242, 1243, 1244, 1245, 1246, 1247, 1248, 1249, 1250, 1251, 1252, 1253, 1254, 1255, 1256, 1257
 1258, 1259, 1260, 1261, 1367, 1369, 1371, 1373, 1375, 1377, 1379, 1381, 1383, 1385, 1387, 1389
 1391, 1393, 1395, 1397, 1399, 1401, 1403, 1405, 1407, 1409, 1411, 1413, 1415, 1417, 1419, 1421
 1423, 1425, 1427, 1429, 1431, 1433, 1435
*Nset, nset=TIP, instance=Part-1-1
 16,
*End Assembly
** 
** MATERIALS
** 
*Material, name=Material-1
*Elastic
2000., 0.3
** ----------------------------------------------------------------
** 
** STEP: Step-1
** 
*Step, name=Step-1, nlgeom=NO
*Static
1., 1., 1e-05, 1.
** 
** BOUNDARY CONDITIONS
** 
** Name: BC-1 Type: Displacement/Rotation
*Boundary
Set-2, 1, 1
Set-2, 2, 2, 0.0001
** Name: BC-2 Type: Displacement/Rotation
*Boundary
Set-3, 1, 1
Set-3, 2, 2
** 
** OUTPUT REQUESTS
** 
*Restart, write, frequency=0
** 
** FIELD OUTPUT: F-Output-1
** 
*Output, field, variable=PRESELECT
** 
** HISTORY OUTPUT: H-Output-1
** 
*Output, history, variable=PRESELECT
*End Step
