*Heading
** Job name: singleNotch Model name: singleNotch
** Generated by: Abaqus/CAE 2020
*Preprint, echo=NO, model=NO, history=NO, contact=NO
**
** PARTS
**
*Part, name=Part-1
*Node
      1,  0.349999994,           0.
      2,  0.349999994,  0.349999994
      3,           0.,  0.349999994
      4,           0.,           0.
      5,  0.400000006,           0.
      6,  0.400000006,  0.349999994
      7,  0.349999994,  0.400000006
      8,           0.,  0.400000006
      9,           1.,           0.
     10,           1.,  0.349999994
     11,  0.349999994,  0.499999702
     12,           0.,  0.499998987
     13,  0.400000006,  0.499999791
     14,  0.400000006,  0.400000006
     15,           1.,  0.400000006
     16,          0.5,          0.5
     17,           1.,  0.500001013
     18,  0.400000006,           1.
     19,  0.400000006,  0.649999976
     20,           1.,  0.649999976
** ... 6581 like lines cut
*Element, type=CPE4
  1,    1,   33,  904,  140
  2,   33,   34,  905,  904
  3,   34,   35,  906,  905
  4,   35,   36,  907,  906
  5,   36,   37,  908,  907
  6,   37,   38,  909,  908
  7,   38,   39,  910,  909
  8,   39,   40,  911,  910
  9,   40,   41,  912,  911
 10,   41,   42,  913,  912
 11,   42,   43,  914,  913
 12,   43,   44,  915,  914
 13,   44,   45,  916,  915
 14,   45,   46,  917,  916
 15,   46,   47,  918,  917
 16,   47,   48,  919,  918
 17,   48,   49,  920,  919
 18,   49,   50,  921,  920
 19,   50,   51,  922,  921
 20,   51,   52,  923,  922
** ... 6380 like lines cut
*Nset, nset=Set-8, generate
    1,  6601,     1
*Elset, elset=Set-8, generate
    1,  6400,     1
*Elset, elset=_Surf-1_S4, internal, generate
 2961,  4277,    28
*Elset, elset=_Surf-1_S2, internal
 4716, 4744, 4772, 4800, 4828, 4856, 4884, 4912, 4940, 4968, 4996, 5024, 5052, 5080, 5108, 5136
 5164, 5192, 5220, 5248, 5276, 5304, 5332, 5360, 5388, 5416, 5444, 5472, 5724, 5752, 5780, 5808
*Surface, type=ELEMENT, name=Surf-1
_Surf-1_S4, S4
_Surf-1_S2, S2
*Elset, elset=_Surf-2_S4, internal, generate
   1,  869,   28
*Elset, elset=_Surf-2_S2, internal, generate
 1036,  2352,    28
*Surface, type=ELEMENT, name=Surf-2
_Surf-2_S4, S4
_Surf-2_S2, S2
*Elset, elset=_Surf-3_S3, internal
  757,  758,  759,  760,  761,  762,  763,  764,  765,  766,  767,  768,  769,  770,  771,  772
  773,  774,  775,  776,  777,  778,  779,  780,  781,  782,  783,  784, 5445, 5446, 5447, 5448
 5449, 5450, 5451, 5452, 5453, 5454, 5455, 5456, 5457, 5458, 5459, 5460, 5461, 5462, 5463, 5464
 5465, 5466, 5467, 5468, 5469, 5470, 5471, 5472
*Elset, elset=_Surf-3_S4, internal
  897,  925,  953,  981, 2353, 2381, 2409, 2437, 2465, 2493, 2521, 2549, 5809, 5837, 5865, 5893
*Elset, elset=_Surf-3_S2, internal, generate
 5500,  5696,    28
*Surface, type=ELEMENT, name=Surf-3
_Surf-3_S3, S3
_Surf-3_S4, S4
_Surf-3_S2, S2
*Elset, elset=_Surf-4_S3, internal
 2325, 2326, 2327, 2328, 2329, 2330, 2331, 2332, 2333, 2334, 2335, 2336, 2337, 2338, 2339, 2340
 2341, 2342, 2343, 2344, 2345, 2346, 2347, 2348, 2349, 2350, 2351, 2352, 2953, 2954, 2955, 2956
 2957, 2958, 2959, 2960, 4277, 4278, 4279, 4280, 4281, 4282, 4283, 4284, 4285, 4286, 4287, 4288
 4289, 4290, 4291, 4292, 4293, 4294, 4295, 4296, 4297, 4298, 4299, 4300, 4301, 4302, 4303, 4304
 4681, 4682, 4683, 4684, 4685, 4686, 4687, 4688, 5986, 6209
*Elset, elset=_Surf-4_S2, internal
 5984, 5985, 6207, 6208
*Elset, elset=_Surf-4_S4, internal
 6031, 6251
*Surface, type=ELEMENT, name=Surf-4
_Surf-4_S3, S3
_Surf-4_S2, S2
_Surf-4_S4, S4
** Section: Section-1
*Solid Section, elset=Set-8, material=Material-1
,
*End Part
**  
**
** ASSEMBLY
**
*Assembly, name=Assembly
**  
*Instance, name=Part-1-1, part=Part-1
*End Instance
**  
*Nset, nset=Set-1, instance=Part-1-1
   1,   4,   5,   9, 114, 115, 116, 117, 118, 119, 120, 121, 122, 123, 124, 125
 126, 127, 128, 129, 130, 131, 132, 133, 134, 135, 136, 137, 138, 139, 140, 171
 172, 173, 207, 208, 209, 210, 211, 212, 213, 214, 215, 216, 217, 218, 219, 220
 221, 222, 223, 224, 225, 226, 227, 228, 229, 230, 231, 232, 233, 234, 235, 236
 237, 238, 239, 240, 241, 242, 243, 244, 245, 246, 247, 248, 249, 250, 251, 252
 253,
*Elset, elset=Set-1, instance=Part-1-1
    1,   29,   57,   85,  113,  141,  169,  197,  225,  253,  281,  309,  337,  365,  393,  421
  449,  477,  505,  533,  561,  589,  617,  645,  673,  701,  729,  757,  785,  813,  841,  869
 1036, 1064, 1092, 1120, 1148, 1176, 1204, 1232, 1260, 1288, 1316, 1344, 1372, 1400, 1428, 1456
 1484, 1512, 1540, 1568, 1596, 1624, 1652, 1680, 1708, 1736, 1764, 1792, 1820, 1848, 1876, 1904
 1932, 1960, 1988, 2016, 2044, 2072, 2100, 2128, 2156, 2184, 2212, 2240, 2268, 2296, 2324, 2352
*Nset, nset=Set-2, instance=Part-1-1
  18,  21,  26,  27, 577, 578, 579, 580, 581, 582, 583, 584, 585, 586, 587, 588
 589, 590, 591, 592, 593, 594, 595, 596, 597, 598, 599, 600, 601, 602, 603, 604
 605, 606, 607, 608, 609, 610, 611, 612, 613, 614, 615, 616, 617, 618, 619, 620
 621, 622, 623, 719, 720, 721, 722, 723, 724, 725, 726, 727, 728, 729, 730, 731
 732, 733, 734, 735, 736, 737, 738, 739, 740, 741, 742, 743, 744, 745, 868, 869
 870,
*Elset, elset=Set-2, instance=Part-1-1
 2961, 2989, 3017, 3045, 3073, 3101, 3129, 3157, 3185, 3213, 3241, 3269, 3297, 3325, 3353, 3381
 3409, 3437, 3465, 3493, 3521, 3549, 3577, 3605, 3633, 3661, 3689, 3717, 3745, 3773, 3801, 3829
 3857, 3885, 3913, 3941, 3969, 3997, 4025, 4053, 4081, 4109, 4137, 4165, 4193, 4221, 4249, 4277
 4716, 4744, 4772, 4800, 4828, 4856, 4884, 4912, 4940, 4968, 4996, 5024, 5052, 5080, 5108, 5136
 5164, 5192, 5220, 5248, 5276, 5304, 5332, 5360, 5388, 5416, 5444, 5472, 5724, 5752, 5780, 5808
*Nset, nset=Set-3, instance=Part-1-1
   1,   4,   5,   9, 114, 115, 116, 117, 118, 119, 120, 121, 122, 123, 124, 125
 126, 127, 128, 129, 130, 131, 132, 133, 134, 135, 136, 137, 138, 139, 140, 171
 172, 173, 207, 208, 209, 210, 211, 212, 213, 214, 215, 216, 217, 218, 219, 220
 221, 222, 223, 224, 225, 226, 227, 228, 229, 230, 231, 232, 233, 234, 235, 236
 237, 238, 239, 240, 241, 242, 243, 244, 245, 246, 247, 248, 249, 250, 251, 252
 253,
*Elset, elset=Set-3, instance=Part-1-1
    1,   29,   57,   85,  113,  141,  169,  197,  225,  253,  281,  309,  337,  365,  393,  421
  449,  477,  505,  533,  561,  589,  617,  645,  673,  701,  729,  757,  785,  813,  841,  869
 1036, 1064, 1092, 1120, 1148, 1176, 1204, 1232, 1260, 1288, 1316, 1344, 1372, 1400, 1428, 1456
 1484, 1512, 1540, 1568, 1596, 1624, 1652, 1680, 1708, 1736, 1764, 1792, 1820, 1848, 1876, 1904
 1932, 1960, 1988, 2016, 2044, 2072, 2100, 2128, 2156, 2184, 2212, 2240, 2268, 2296, 2324, 2352
*Nset, nset=TIP, instance=Part-1-1
 16,
*End Assembly
** 
** MATERIALS
** 
*Material, name=Material-1
*Elastic
2000., 0.3
** ----------------------------------------------------------------
** 
** STEP: Step-1
** 
*Step, name=Step-1, nlgeom=NO
*Static
1., 1., 1e-05, 1.
** 
** BOUNDARY CONDITIONS
** 
** Name: BC-1 Type: Displacement/Rotation
*Boundary
Set-2, 1, 1
Set-2, 2, 2, 0.0001
** Name: BC-2 Type: Displacement/Rotation
*Boundary
Set-3, 1, 1
Set-3, 2, 2
** 
** OUTPUT REQUESTS
** 
*Restart, write, frequency=0
** 
** FIELD OUTPUT: F-Output-1
** 
*Output, field, variable=PRESELECT
** 
** HISTORY OUTPUT: H-Output-1
** 
*Output, history, variable=PRESELECT
*End Step
