*Heading
** Job name: singleNotchShear3D Model name: Model-1
** Generated by: Abaqus/CAE 2020
*Preprint, echo=NO, model=NO, history=NO, contact=NO
**
** PARTS
**
*Part, name=Part-1
*Node
      1,           1.,          0.5,           0.
      2,           1.,           0.,           0.
      3,           0.,           0.,           0.
      4,          0.5,          0.5,           0.
      5,           0.,  0.499000013,           0.
      6,           1.,          0.5,  0.200000003
      7,          0.5,          0.5,  0.200000003
      8,           0.,  0.499000013,  0.200000003
      9,           0.,           0.,  0.200000003
     10,           1.,           0.,  0.200000003
     11,           0.,  0.500999987,           0.
     12,           0.,           1.,           0.
     13,           1.,           1.,           0.
     14,           1.,           1.,  0.200000003
     15,           0.,           1.,  0.200000003
     16,           0.,  0.500999987,  0.200000003
     17,           1.,  0.479999989,           0.
     18,           1.,  0.460000008,           0.
     19,           1.,  0.439999998,           0.
     20,           1.,  0.419999987,           0.
** ... 28866 like lines cut
*Element, type=C3D8
    1,   137,   621,    17,     1,  3846,  7719,  4085,   206
    2,   621,   622,    18,    17,  7719,  7720,  4084,  4085
    3,   622,   623,    19,    18,  7720,  7721,  4083,  4084
    4,   623,   624,    20,    19,  7721,  7722,  4082,  4083
    5,   624,   625,    21,    20,  7722,  7723,  4081,  4082
    6,   625,   626,    22,    21,  7723,  7724,  4080,  4081
    7,   626,   627,    23,    22,  7724,  7725,  4079,  4080
    8,   627,   628,    24,    23,  7725,  7726,  4078,  4079
    9,   628,   629,    25,    24,  7726,  7727,  4077,  4078
   10,   629,   630,    26,    25,  7727,  7728,  4076,  4077
   11,   630,   631,    27,    26,  7728,  7729,  4075,  4076
   12,   631,   632,    28,    27,  7729,  7730,  4074,  4075
   13,   632,   633,    29,    28,  7730,  7731,  4073,  4074
   14,   633,   634,    30,    29,  7731,  7732,  4072,  4073
   15,   634,   635,    31,    30,  7732,  7733,  4071,  4072
   16,   635,   636,    32,    31,  7733,  7734,  4070,  4071
   17,   636,   637,    33,    32,  7734,  7735,  4069,  4070
   18,   637,   638,    34,    33,  7735,  7736,  4068,  4069
   19,   638,   639,    35,    34,  7736,  7737,  4067,  4068
   20,   639,   640,    36,    35,  7737,  7738,  4066,  4067
** ... 24980 like lines cut
*Nset, nset=Set-1, generate
     1,  28886,      1
*Elset, elset=Set-1, generate
     1,  25000,      1
** Section: Section-1
*Solid Section, elset=Set-1, material=Material-1
,
*End Part
**  
**
** ASSEMBLY
**
*Assembly, name=Assembly
**  
*Instance, name=Part-1-1, part=Part-1
*End Instance
**  
*Nset, nset=Set-1, instance=Part-1-1
    2,    3,    9,   10,   41,   42,   43,   44,   45,   46,   47,   48,   49,   50,   51,   52
   53,   54,   55,   56,   57,   58,   59,   60,   61,   62,   63,   64,   65,   66,   67,   68
   69,   70,   71,   72,   73,   74,   75,   76,   77,   78,   79,   80,   81,   82,   83,   84
   85,   86,   87,   88,   89,  171,  172,  173,  174,  175,  176,  177,  178,  179,  189,  190
  191,  192,  193,  194,  195,  196,  197,  279,  280,  281,  282,  283,  284,  285,  286,  287
  288,  289,  290,  291,  292,  293,  294,  295,  296,  297,  298,  299,  300,  301,  302,  303
  304,  305,  306,  307,  308,  309,  310,  311,  312,  313,  314,  315,  316,  317,  318,  319
  320,  321,  322,  323,  324,  325,  326,  327, 3405, 3406, 3407, 3408, 3409, 3410, 3411, 3412
 3413, 3414, 3415, 3416, 3417, 3418, 3419, 3420, 3421, 3422, 3423, 3424, 3425, 3426, 3427, 3428
 3429, 3430, 3431, 3432, 3433, 3434, 3435, 3436, 3437, 3438, 3439, 3440, 3441, 3442, 3443, 3444
 3445, 3446, 3447, 3448, 3449, 3450, 3451, 3452, 3453, 3454, 3455, 3456, 3457, 3458, 3459, 3460
 3461, 3462, 3463, 3464, 3465, 3466, 3467, 3468, 3469, 3470, 3471, 3472, 3473, 3474, 3475, 3476
 3477, 3478, 3479, 3480, 3481, 3482, 3483, 3484, 3485, 3486, 3487, 3488, 3489, 3490, 3491, 3492
 3493, 3494, 3495, 3496, 3497, 3498, 3499, 3500, 3501, 3502, 3503, 3504, 3505, 3506, 3507, 3508
 3509, 3510, 3511, 3512, 3513, 3514, 3515, 3516, 3517, 3518, 3519, 3520, 3521, 3522, 3523, 3524
 3525, 3526, 3527, 3528, 3529, 3530, 3531, 3532, 3533, 3534, 3535, 3536, 3537, 3538, 3539, 3540
 3541, 3542, 3543, 3544, 3545, 3546, 3547, 3548, 3549, 3550, 3551, 3552, 3553, 3554, 3555, 3556
 3557, 3558, 3559, 3560, 3561, 3562, 3563, 3564, 3565, 3566, 3567, 3568, 3569, 3570, 3571, 3572
 3573, 3574, 3575, 3576, 3577, 3578, 3579, 3580, 3581, 3582, 3583, 3584, 3585, 3586, 3587, 3588
 3589, 3590, 3591, 3592, 3593, 3594, 3595, 3596, 3597, 3598, 3599, 3600, 3601, 3602, 3603, 3604
** ... 16 like lines cut
*Elset, elset=Set-1, instance=Part-1-1, generate
    25,  12500,     25
*Nset, nset=Set-2, instance=Part-1-1
   12,   13,   14,   15,  400,  401,  402,  403,  404,  405,  406,  407,  408,  409,  410,  411
  412,  413,  414,  415,  416,  417,  418,  419,  420,  421,  422,  423,  424,  425,  426,  427
  428,  429,  430,  431,  432,  433,  434,  435,  436,  437,  438,  439,  440,  441,  442,  443
  444,  445,  446,  447,  448,  482,  483,  484,  485,  486,  487,  488,  489,  490,  491,  492
  493,  494,  495,  496,  497,  498,  499,  524,  525,  526,  527,  528,  529,  530,  531,  532
  533,  534,  535,  536,  537,  538,  539,  540,  541,  542,  543,  544,  545,  546,  547,  548
  549,  550,  551,  552,  553,  554,  555,  556,  557,  558,  559,  560,  561,  562,  563,  564
  565,  566,  567,  568,  569,  570,  571,  572, 7278, 7279, 7280, 7281, 7282, 7283, 7284, 7285
 7286, 7287, 7288, 7289, 7290, 7291, 7292, 7293, 7294, 7295, 7296, 7297, 7298, 7299, 7300, 7301
 7302, 7303, 7304, 7305, 7306, 7307, 7308, 7309, 7310, 7311, 7312, 7313, 7314, 7315, 7316, 7317
 7318, 7319, 7320, 7321, 7322, 7323, 7324, 7325, 7326, 7327, 7328, 7329, 7330, 7331, 7332, 7333
 7334, 7335, 7336, 7337, 7338, 7339, 7340, 7341, 7342, 7343, 7344, 7345, 7346, 7347, 7348, 7349
 7350, 7351, 7352, 7353, 7354, 7355, 7356, 7357, 7358, 7359, 7360, 7361, 7362, 7363, 7364, 7365
 7366, 7367, 7368, 7369, 7370, 7371, 7372, 7373, 7374, 7375, 7376, 7377, 7378, 7379, 7380, 7381
 7382, 7383, 7384, 7385, 7386, 7387, 7388, 7389, 7390, 7391, 7392, 7393, 7394, 7395, 7396, 7397
 7398, 7399, 7400, 7401, 7402, 7403, 7404, 7405, 7406, 7407, 7408, 7409, 7410, 7411, 7412, 7413
 7414, 7415, 7416, 7417, 7418, 7419, 7420, 7421, 7422, 7423, 7424, 7425, 7426, 7427, 7428, 7429
 7430, 7431, 7432, 7433, 7434, 7435, 7436, 7437, 7438, 7439, 7440, 7441, 7442, 7443, 7444, 7445
 7446, 7447, 7448, 7449, 7450, 7451, 7452, 7453, 7454, 7455, 7456, 7457, 7458, 7459, 7460, 7461
 7462, 7463, 7464, 7465, 7466, 7467, 7468, 7469, 7470, 7471, 7472, 7473, 7474, 7475, 7476, 7477
** ... 16 like lines cut
*Elset, elset=Set-2, instance=Part-1-1
 13701, 13702, 13703, 13704, 13705, 13706, 13707, 13708, 13709, 13710, 13711, 13712, 13713, 13714, 13715, 13716
 13717, 13718, 13719, 13720, 13721, 13722, 13723, 13724, 13725, 13726, 13727, 13728, 13729, 13730, 13731, 13732
 13733, 13734, 13735, 13736, 13737, 13738, 13739, 13740, 13741, 13742, 13743, 13744, 13745, 13746, 13747, 13748
 13749, 13750, 14951, 14952, 14953, 14954, 14955, 14956, 14957, 14958, 14959, 14960, 14961, 14962, 14963, 14964
 14965, 14966, 14967, 14968, 14969, 14970, 14971, 14972, 14973, 14974, 14975, 14976, 14977, 14978, 14979, 14980
 14981, 14982, 14983, 14984, 14985, 14986, 14987, 14988, 14989, 14990, 14991, 14992, 14993, 14994, 14995, 14996
 14997, 14998, 14999, 15000, 16201, 16202, 16203, 16204, 16205, 16206, 16207, 16208, 16209, 16210, 16211, 16212
 16213, 16214, 16215, 16216, 16217, 16218, 16219, 16220, 16221, 16222, 16223, 16224, 16225, 16226, 16227, 16228
 16229, 16230, 16231, 16232, 16233, 16234, 16235, 16236, 16237, 16238, 16239, 16240, 16241, 16242, 16243, 16244
 16245, 16246, 16247, 16248, 16249, 16250, 17451, 17452, 17453, 17454, 17455, 17456, 17457, 17458, 17459, 17460
 17461, 17462, 17463, 17464, 17465, 17466, 17467, 17468, 17469, 17470, 17471, 17472, 17473, 17474, 17475, 17476
 17477, 17478, 17479, 17480, 17481, 17482, 17483, 17484, 17485, 17486, 17487, 17488, 17489, 17490, 17491, 17492
 17493, 17494, 17495, 17496, 17497, 17498, 17499, 17500, 18701, 18702, 18703, 18704, 18705, 18706, 18707, 18708
 18709, 18710, 18711, 18712, 18713, 18714, 18715, 18716, 18717, 18718, 18719, 18720, 18721, 18722, 18723, 18724
 18725, 18726, 18727, 18728, 18729, 18730, 18731, 18732, 18733, 18734, 18735, 18736, 18737, 18738, 18739, 18740
 18741, 18742, 18743, 18744, 18745, 18746, 18747, 18748, 18749, 18750, 19951, 19952, 19953, 19954, 19955, 19956
 19957, 19958, 19959, 19960, 19961, 19962, 19963, 19964, 19965, 19966, 19967, 19968, 19969, 19970, 19971, 19972
 19973, 19974, 19975, 19976, 19977, 19978, 19979, 19980, 19981, 19982, 19983, 19984, 19985, 19986, 19987, 19988
 19989, 19990, 19991, 19992, 19993, 19994, 19995, 19996, 19997, 19998, 19999, 20000, 21201, 21202, 21203, 21204
 21205, 21206, 21207, 21208, 21209, 21210, 21211, 21212, 21213, 21214, 21215, 21216, 21217, 21218, 21219, 21220
** ... 12 like lines cut
*Nset, nset=Set-3, instance=Part-1-1
    1,    2,    6,   10,   13,   14,   17,   18,   19,   20,   21,   22,   23,   24,   25,   26
   27,   28,   29,   30,   31,   32,   33,   34,   35,   36,   37,   38,   39,   40,  189,  190
  191,  192,  193,  194,  195,  196,  197,  198,  199,  200,  201,  202,  203,  204,  205,  206
  328,  329,  330,  331,  332,  333,  334,  335,  336,  337,  338,  339,  340,  341,  342,  343
  344,  345,  346,  347,  348,  349,  350,  351,  449,  450,  451,  452,  453,  454,  455,  456
  457,  458,  459,  460,  461,  462,  463,  464,  465,  466,  467,  468,  469,  470,  471,  472
  491,  492,  493,  494,  495,  496,  497,  498,  499,  500,  501,  502,  503,  504,  505,  506
  507,  508,  509,  510,  511,  512,  513,  514,  515,  516,  517,  518,  519,  520,  521,  522
  523, 4062, 4063, 4064, 4065, 4066, 4067, 4068, 4069, 4070, 4071, 4072, 4073, 4074, 4075, 4076
 4077, 4078, 4079, 4080, 4081, 4082, 4083, 4084, 4085, 4086, 4087, 4088, 4089, 4090, 4091, 4092
 4093, 4094, 4095, 4096, 4097, 4098, 4099, 4100, 4101, 4102, 4103, 4104, 4105, 4106, 4107, 4108
 4109, 4110, 4111, 4112, 4113, 4114, 4115, 4116, 4117, 4118, 4119, 4120, 4121, 4122, 4123, 4124
 4125, 4126, 4127, 4128, 4129, 4130, 4131, 4132, 4133, 4134, 4135, 4136, 4137, 4138, 4139, 4140
 4141, 4142, 4143, 4144, 4145, 4146, 4147, 4148, 4149, 4150, 4151, 4152, 4153, 4154, 4155, 4156
 4157, 4158, 4159, 4160, 4161, 4162, 4163, 4164, 4165, 4166, 4167, 4168, 4169, 4170, 4171, 4172
 4173, 4174, 4175, 4176, 4177, 4178, 4179, 4180, 4181, 4182, 4183, 4184, 4185, 4186, 4187, 4188
 4189, 4190, 4191, 4192, 4193, 4194, 4195, 4196, 4197, 4198, 4199, 4200, 4201, 4202, 4203, 4204
 4205, 4206, 4207, 4208, 4209, 4210, 4211, 4212, 4213, 4214, 4215, 4216, 4217, 4218, 4219, 4220
 4221, 4222, 4223, 4224, 4225, 4226, 4227, 4228, 4229, 4230, 4231, 4232, 4233, 4234, 4235, 4236
 4237, 4238, 4239, 4240, 4241, 4242, 4243, 4244, 4245, 4246, 4247, 4248, 4249, 4250, 4251, 4252
** ... 16 like lines cut
*Elset, elset=Set-3, instance=Part-1-1
     1,     2,     3,     4,     5,     6,     7,     8,     9,    10,    11,    12,    13,    14,    15,    16
    17,    18,    19,    20,    21,    22,    23,    24,    25,  1251,  1252,  1253,  1254,  1255,  1256,  1257
  1258,  1259,  1260,  1261,  1262,  1263,  1264,  1265,  1266,  1267,  1268,  1269,  1270,  1271,  1272,  1273
  1274,  1275,  2501,  2502,  2503,  2504,  2505,  2506,  2507,  2508,  2509,  2510,  2511,  2512,  2513,  2514
  2515,  2516,  2517,  2518,  2519,  2520,  2521,  2522,  2523,  2524,  2525,  3751,  3752,  3753,  3754,  3755
  3756,  3757,  3758,  3759,  3760,  3761,  3762,  3763,  3764,  3765,  3766,  3767,  3768,  3769,  3770,  3771
  3772,  3773,  3774,  3775,  5001,  5002,  5003,  5004,  5005,  5006,  5007,  5008,  5009,  5010,  5011,  5012
  5013,  5014,  5015,  5016,  5017,  5018,  5019,  5020,  5021,  5022,  5023,  5024,  5025,  6251,  6252,  6253
  6254,  6255,  6256,  6257,  6258,  6259,  6260,  6261,  6262,  6263,  6264,  6265,  6266,  6267,  6268,  6269
  6270,  6271,  6272,  6273,  6274,  6275,  7501,  7502,  7503,  7504,  7505,  7506,  7507,  7508,  7509,  7510
  7511,  7512,  7513,  7514,  7515,  7516,  7517,  7518,  7519,  7520,  7521,  7522,  7523,  7524,  7525,  8751
  8752,  8753,  8754,  8755,  8756,  8757,  8758,  8759,  8760,  8761,  8762,  8763,  8764,  8765,  8766,  8767
  8768,  8769,  8770,  8771,  8772,  8773,  8774,  8775, 10001, 10002, 10003, 10004, 10005, 10006, 10007, 10008
 10009, 10010, 10011, 10012, 10013, 10014, 10015, 10016, 10017, 10018, 10019, 10020, 10021, 10022, 10023, 10024
 10025, 11251, 11252, 11253, 11254, 11255, 11256, 11257, 11258, 11259, 11260, 11261, 11262, 11263, 11264, 11265
 11266, 11267, 11268, 11269, 11270, 11271, 11272, 11273, 11274, 11275, 12501, 12551, 12601, 12651, 12701, 12751
 12801, 12851, 12901, 12951, 13001, 13051, 13101, 13151, 13201, 13251, 13301, 13351, 13401, 13451, 13501, 13551
 13601, 13651, 13701, 13751, 13801, 13851, 13901, 13951, 14001, 14051, 14101, 14151, 14201, 14251, 14301, 14351
 14401, 14451, 14501, 14551, 14601, 14651, 14701, 14751, 14801, 14851, 14901, 14951, 15001, 15051, 15101, 15151
 15201, 15251, 15301, 15351, 15401, 15451, 15501, 15551, 15601, 15651, 15701, 15751, 15801, 15851, 15901, 15951
** ... 12 like lines cut
*Nset, nset=Set-4, instance=Part-1-1
    3,    5,    8,    9,   11,   12,   15,   16,   90,   91,   92,   93,   94,   95,   96,   97
   98,   99,  100,  101,  102,  103,  104,  105,  106,  107,  108,  109,  110,  111,  112,  113
  162,  163,  164,  165,  166,  167,  168,  169,  170,  171,  172,  173,  174,  175,  176,  177
  178,  179,  255,  256,  257,  258,  259,  260,  261,  262,  263,  264,  265,  266,  267,  268
  269,  270,  271,  272,  273,  274,  275,  276,  277,  278,  376,  377,  378,  379,  380,  381
  382,  383,  384,  385,  386,  387,  388,  389,  390,  391,  392,  393,  394,  395,  396,  397
  398,  399,  473,  474,  475,  476,  477,  478,  479,  480,  481,  482,  483,  484,  485,  486
  487,  488,  489,  490,  573,  574,  575,  576,  577,  578,  579,  580,  581,  582,  583,  584
  585,  586,  587,  588,  589,  590,  591,  592,  593,  594,  595,  596, 2973, 2974, 2975, 2976
 2977, 2978, 2979, 2980, 2981, 2982, 2983, 2984, 2985, 2986, 2987, 2988, 2989, 2990, 2991, 2992
 2993, 2994, 2995, 2996, 2997, 2998, 2999, 3000, 3001, 3002, 3003, 3004, 3005, 3006, 3007, 3008
 3009, 3010, 3011, 3012, 3013, 3014, 3015, 3016, 3017, 3018, 3019, 3020, 3021, 3022, 3023, 3024
 3025, 3026, 3027, 3028, 3029, 3030, 3031, 3032, 3033, 3034, 3035, 3036, 3037, 3038, 3039, 3040
 3041, 3042, 3043, 3044, 3045, 3046, 3047, 3048, 3049, 3050, 3051, 3052, 3053, 3054, 3055, 3056
 3057, 3058, 3059, 3060, 3061, 3062, 3063, 3064, 3065, 3066, 3067, 3068, 3069, 3070, 3071, 3072
 3073, 3074, 3075, 3076, 3077, 3078, 3079, 3080, 3081, 3082, 3083, 3084, 3085, 3086, 3087, 3088
 3089, 3090, 3091, 3092, 3093, 3094, 3095, 3096, 3097, 3098, 3099, 3100, 3101, 3102, 3103, 3104
 3105, 3106, 3107, 3108, 3109, 3110, 3111, 3112, 3113, 3114, 3115, 3116, 3117, 3118, 3119, 3120
 3121, 3122, 3123, 3124, 3125, 3126, 3127, 3128, 3129, 3130, 3131, 3132, 3133, 3134, 3135, 3136
 3137, 3138, 3139, 3140, 3141, 3142, 3143, 3144, 3145, 3146, 3147, 3148, 3149, 3150, 3151, 3152
** ... 16 like lines cut
*Elset, elset=Set-4, instance=Part-1-1
  1226,  1227,  1228,  1229,  1230,  1231,  1232,  1233,  1234,  1235,  1236,  1237,  1238,  1239,  1240,  1241
  1242,  1243,  1244,  1245,  1246,  1247,  1248,  1249,  1250,  2476,  2477,  2478,  2479,  2480,  2481,  2482
  2483,  2484,  2485,  2486,  2487,  2488,  2489,  2490,  2491,  2492,  2493,  2494,  2495,  2496,  2497,  2498
  2499,  2500,  3726,  3727,  3728,  3729,  3730,  3731,  3732,  3733,  3734,  3735,  3736,  3737,  3738,  3739
  3740,  3741,  3742,  3743,  3744,  3745,  3746,  3747,  3748,  3749,  3750,  4976,  4977,  4978,  4979,  4980
  4981,  4982,  4983,  4984,  4985,  4986,  4987,  4988,  4989,  4990,  4991,  4992,  4993,  4994,  4995,  4996
  4997,  4998,  4999,  5000,  6226,  6227,  6228,  6229,  6230,  6231,  6232,  6233,  6234,  6235,  6236,  6237
  6238,  6239,  6240,  6241,  6242,  6243,  6244,  6245,  6246,  6247,  6248,  6249,  6250,  7476,  7477,  7478
  7479,  7480,  7481,  7482,  7483,  7484,  7485,  7486,  7487,  7488,  7489,  7490,  7491,  7492,  7493,  7494
  7495,  7496,  7497,  7498,  7499,  7500,  8726,  8727,  8728,  8729,  8730,  8731,  8732,  8733,  8734,  8735
  8736,  8737,  8738,  8739,  8740,  8741,  8742,  8743,  8744,  8745,  8746,  8747,  8748,  8749,  8750,  9976
  9977,  9978,  9979,  9980,  9981,  9982,  9983,  9984,  9985,  9986,  9987,  9988,  9989,  9990,  9991,  9992
  9993,  9994,  9995,  9996,  9997,  9998,  9999, 10000, 11226, 11227, 11228, 11229, 11230, 11231, 11232, 11233
 11234, 11235, 11236, 11237, 11238, 11239, 11240, 11241, 11242, 11243, 11244, 11245, 11246, 11247, 11248, 11249
 11250, 12476, 12477, 12478, 12479, 12480, 12481, 12482, 12483, 12484, 12485, 12486, 12487, 12488, 12489, 12490
 12491, 12492, 12493, 12494, 12495, 12496, 12497, 12498, 12499, 12500, 12550, 12600, 12650, 12700, 12750, 12800
 12850, 12900, 12950, 13000, 13050, 13100, 13150, 13200, 13250, 13300, 13350, 13400, 13450, 13500, 13550, 13600
 13650, 13700, 13750, 13800, 13850, 13900, 13950, 14000, 14050, 14100, 14150, 14200, 14250, 14300, 14350, 14400
 14450, 14500, 14550, 14600, 14650, 14700, 14750, 14800, 14850, 14900, 14950, 15000, 15050, 15100, 15150, 15200
 15250, 15300, 15350, 15400, 15450, 15500, 15550, 15600, 15650, 15700, 15750, 15800, 15850, 15900, 15950, 16000
** ... 12 like lines cut
*Elset, elset=_Surf-1_S3, internal, instance=Part-1-1
 13701, 13702, 13703, 13704, 13705, 13706, 13707, 13708, 13709, 13710, 13711, 13712, 13713, 13714, 13715, 13716
 13717, 13718, 13719, 13720, 13721, 13722, 13723, 13724, 13725, 13726, 13727, 13728, 13729, 13730, 13731, 13732
 13733, 13734, 13735, 13736, 13737, 13738, 13739, 13740, 13741, 13742, 13743, 13744, 13745, 13746, 13747, 13748
 13749, 13750, 14951, 14952, 14953, 14954, 14955, 14956, 14957, 14958, 14959, 14960, 14961, 14962, 14963, 14964
 14965, 14966, 14967, 14968, 14969, 14970, 14971, 14972, 14973, 14974, 14975, 14976, 14977, 14978, 14979, 14980
 14981, 14982, 14983, 14984, 14985, 14986, 14987, 14988, 14989, 14990, 14991, 14992, 14993, 14994, 14995, 14996
 14997, 14998, 14999, 15000, 16201, 16202, 16203, 16204, 16205, 16206, 16207, 16208, 16209, 16210, 16211, 16212
 16213, 16214, 16215, 16216, 16217, 16218, 16219, 16220, 16221, 16222, 16223, 16224, 16225, 16226, 16227, 16228
 16229, 16230, 16231, 16232, 16233, 16234, 16235, 16236, 16237, 16238, 16239, 16240, 16241, 16242, 16243, 16244
 16245, 16246, 16247, 16248, 16249, 16250, 17451, 17452, 17453, 17454, 17455, 17456, 17457, 17458, 17459, 17460
 17461, 17462, 17463, 17464, 17465, 17466, 17467, 17468, 17469, 17470, 17471, 17472, 17473, 17474, 17475, 17476
 17477, 17478, 17479, 17480, 17481, 17482, 17483, 17484, 17485, 17486, 17487, 17488, 17489, 17490, 17491, 17492
 17493, 17494, 17495, 17496, 17497, 17498, 17499, 17500, 18701, 18702, 18703, 18704, 18705, 18706, 18707, 18708
 18709, 18710, 18711, 18712, 18713, 18714, 18715, 18716, 18717, 18718, 18719, 18720, 18721, 18722, 18723, 18724
 18725, 18726, 18727, 18728, 18729, 18730, 18731, 18732, 18733, 18734, 18735, 18736, 18737, 18738, 18739, 18740
 18741, 18742, 18743, 18744, 18745, 18746, 18747, 18748, 18749, 18750, 19951, 19952, 19953, 19954, 19955, 19956
 19957, 19958, 19959, 19960, 19961, 19962, 19963, 19964, 19965, 19966, 19967, 19968, 19969, 19970, 19971, 19972
 19973, 19974, 19975, 19976, 19977, 19978, 19979, 19980, 19981, 19982, 19983, 19984, 19985, 19986, 19987, 19988
 19989, 19990, 19991, 19992, 19993, 19994, 19995, 19996, 19997, 19998, 19999, 20000, 21201, 21202, 21203, 21204
 21205, 21206, 21207, 21208, 21209, 21210, 21211, 21212, 21213, 21214, 21215, 21216, 21217, 21218, 21219, 21220
** ... 12 like lines cut
*Surface, type=ELEMENT, name=Surf-1
_Surf-1_S3, S3
*Elset, elset=_Surf-2_S4, internal, instance=Part-1-1, generate
    25,  12500,     25
*Surface, type=ELEMENT, name=Surf-2
_Surf-2_S4, S4
*Elset, elset=_Surf-3_S4, internal, instance=Part-1-1, generate
 12550,  25000,     50
*Elset, elset=_Surf-3_S3, internal, instance=Part-1-1
  1226,  1227,  1228,  1229,  1230,  1231,  1232,  1233,  1234,  1235,  1236,  1237,  1238,  1239,  1240,  1241
  1242,  1243,  1244,  1245,  1246,  1247,  1248,  1249,  1250,  2476,  2477,  2478,  2479,  2480,  2481,  2482
  2483,  2484,  2485,  2486,  2487,  2488,  2489,  2490,  2491,  2492,  2493,  2494,  2495,  2496,  2497,  2498
  2499,  2500,  3726,  3727,  3728,  3729,  3730,  3731,  3732,  3733,  3734,  3735,  3736,  3737,  3738,  3739
  3740,  3741,  3742,  3743,  3744,  3745,  3746,  3747,  3748,  3749,  3750,  4976,  4977,  4978,  4979,  4980
  4981,  4982,  4983,  4984,  4985,  4986,  4987,  4988,  4989,  4990,  4991,  4992,  4993,  4994,  4995,  4996
  4997,  4998,  4999,  5000,  6226,  6227,  6228,  6229,  6230,  6231,  6232,  6233,  6234,  6235,  6236,  6237
  6238,  6239,  6240,  6241,  6242,  6243,  6244,  6245,  6246,  6247,  6248,  6249,  6250,  7476,  7477,  7478
  7479,  7480,  7481,  7482,  7483,  7484,  7485,  7486,  7487,  7488,  7489,  7490,  7491,  7492,  7493,  7494
  7495,  7496,  7497,  7498,  7499,  7500,  8726,  8727,  8728,  8729,  8730,  8731,  8732,  8733,  8734,  8735
  8736,  8737,  8738,  8739,  8740,  8741,  8742,  8743,  8744,  8745,  8746,  8747,  8748,  8749,  8750,  9976
  9977,  9978,  9979,  9980,  9981,  9982,  9983,  9984,  9985,  9986,  9987,  9988,  9989,  9990,  9991,  9992
  9993,  9994,  9995,  9996,  9997,  9998,  9999, 10000, 11226, 11227, 11228, 11229, 11230, 11231, 11232, 11233
 11234, 11235, 11236, 11237, 11238, 11239, 11240, 11241, 11242, 11243, 11244, 11245, 11246, 11247, 11248, 11249
 11250, 12476, 12477, 12478, 12479, 12480, 12481, 12482, 12483, 12484, 12485, 12486, 12487, 12488, 12489, 12490
 12491, 12492, 12493, 12494, 12495, 12496, 12497, 12498, 12499, 12500
*Surface, type=ELEMENT, name=Surf-3
_Surf-3_S4, S4
_Surf-3_S3, S3
*Elset, elset=_Surf-4_S5, internal, instance=Part-1-1
     1,     2,     3,     4,     5,     6,     7,     8,     9,    10,    11,    12,    13,    14,    15,    16
    17,    18,    19,    20,    21,    22,    23,    24,    25,  1251,  1252,  1253,  1254,  1255,  1256,  1257
  1258,  1259,  1260,  1261,  1262,  1263,  1264,  1265,  1266,  1267,  1268,  1269,  1270,  1271,  1272,  1273
  1274,  1275,  2501,  2502,  2503,  2504,  2505,  2506,  2507,  2508,  2509,  2510,  2511,  2512,  2513,  2514
  2515,  2516,  2517,  2518,  2519,  2520,  2521,  2522,  2523,  2524,  2525,  3751,  3752,  3753,  3754,  3755
  3756,  3757,  3758,  3759,  3760,  3761,  3762,  3763,  3764,  3765,  3766,  3767,  3768,  3769,  3770,  3771
  3772,  3773,  3774,  3775,  5001,  5002,  5003,  5004,  5005,  5006,  5007,  5008,  5009,  5010,  5011,  5012
  5013,  5014,  5015,  5016,  5017,  5018,  5019,  5020,  5021,  5022,  5023,  5024,  5025,  6251,  6252,  6253
  6254,  6255,  6256,  6257,  6258,  6259,  6260,  6261,  6262,  6263,  6264,  6265,  6266,  6267,  6268,  6269
  6270,  6271,  6272,  6273,  6274,  6275,  7501,  7502,  7503,  7504,  7505,  7506,  7507,  7508,  7509,  7510
  7511,  7512,  7513,  7514,  7515,  7516,  7517,  7518,  7519,  7520,  7521,  7522,  7523,  7524,  7525,  8751
  8752,  8753,  8754,  8755,  8756,  8757,  8758,  8759,  8760,  8761,  8762,  8763,  8764,  8765,  8766,  8767
  8768,  8769,  8770,  8771,  8772,  8773,  8774,  8775, 10001, 10002, 10003, 10004, 10005, 10006, 10007, 10008
 10009, 10010, 10011, 10012, 10013, 10014, 10015, 10016, 10017, 10018, 10019, 10020, 10021, 10022, 10023, 10024
 10025, 11251, 11252, 11253, 11254, 11255, 11256, 11257, 11258, 11259, 11260, 11261, 11262, 11263, 11264, 11265
 11266, 11267, 11268, 11269, 11270, 11271, 11272, 11273, 11274, 11275
*Elset, elset=_Surf-4_S6, internal, instance=Part-1-1, generate
 12501,  24951,     50
*Surface, type=ELEMENT, name=Surf-4
_Surf-4_S5, S5
_Surf-4_S6, S6
*End Assembly
** 
** MATERIALS
** 
*Material, name=Material-1
*Elastic
2000., 0.3
** ----------------------------------------------------------------
** 
** STEP: Step-1
** 
*Step, name=Step-1, nlgeom=NO
*Static
1., 1., 1e-05, 1.
** 
** BOUNDARY CONDITIONS
** 
** Name: BC-1 Type: Displacement/Rotation
*Boundary
Set-1, 1, 1
Set-1, 2, 2
Set-1, 3, 3
** Name: BC-2 Type: Displacement/Rotation
*Boundary
Set-2, 1, 1, 1.
Set-2, 2, 2
Set-2, 3, 3
** Name: BC-3 Type: Displacement/Rotation
*Boundary
Set-3, 2, 2
Set-3, 3, 3
** Name: BC-4 Type: Displacement/Rotation
*Boundary
Set-4, 2, 2
Set-4, 3, 3
** 
** OUTPUT REQUESTS
** 
*Restart, write, frequency=0
** 
** FIELD OUTPUT: F-Output-1
** 
*Output, field, variable=PRESELECT
** 
** HISTORY OUTPUT: H-Output-1
** 
*Output, history, variable=PRESELECT
*End Step
