*Heading
** Job name: singleNotch Model name: singleNotch
** Generated by: Abaqus/CAE 2020
*Preprint, echo=NO, model=NO, history=NO, contact=NO
**
** PARTS
**
*Part, name=Part-1
*Node
      1,  0.349999994,           0.
      2,  0.349999994,  0.349999994
      3,           0.,  0.349999994
      4,           0.,           0.
      5,  0.400000006,           0.
      6,  0.400000006,  0.349999994
      7,  0.349999994,  0.400000006
      8,           0.,  0.400000006
      9,           1.,           0.
     10,           1.,  0.349999994
     11,  0.349999994,  0.499999702
     12,           0.,  0.499998987
     13,  0.400000006,  0.499999791
     14,  0.400000006,  0.400000006
     15,           1.,  0.400000006
     16,          0.5,          0.5
     17,           1.,  0.500001013
     18,  0.400000006,           1.
     19,  0.400000006,  0.649999976
     20,           1.,  0.649999976
** ... 8366 like lines cut
*Element, type=CPS4R
  1,    1,   33, 1027,  140
  2,   33,   34, 1028, 1027
  3,   34,   35, 1029, 1028
  4,   35,   36, 1030, 1029
  5,   36,   37, 1031, 1030
  6,   37,   38, 1032, 1031
  7,   38,   39, 1033, 1032
  8,   39,   40, 1034, 1033
  9,   40,   41, 1035, 1034
 10,   41,   42, 1036, 1035
 11,   42,   43, 1037, 1036
 12,   43,   44, 1038, 1037
 13,   44,   45, 1039, 1038
 14,   45,   46, 1040, 1039
 15,   46,   47, 1041, 1040
 16,   47,   48, 1042, 1041
 17,   48,   49, 1043, 1042
 18,   49,   50, 1044, 1043
 19,   50,   51, 1045, 1044
 20,   51,   52, 1046, 1045
** ... 8154 like lines cut
*Nset, nset=Set-8, generate
    1,  8386,     1
*Elset, elset=Set-8, generate
    1,  8174,     1
*Elset, elset=_Surf-1_S4, internal, generate
 3617,  4933,    28
*Elset, elset=_Surf-1_S2, internal
 6028, 6056, 6084, 6112, 6140, 6168, 6196, 6224, 6252, 6280, 6308, 6336, 6364, 6392, 6420, 6448
 6476, 6504, 6532, 6560, 6588, 6616, 6644, 6672, 6700, 6728, 6756, 6784, 7036, 7064, 7092, 7120
*Surface, type=ELEMENT, name=Surf-1
_Surf-1_S4, S4
_Surf-1_S2, S2
*Elset, elset=_Surf-2_S4, internal, generate
   1,  869,   28
*Elset, elset=_Surf-2_S2, internal, generate
 1036,  2352,    28
*Surface, type=ELEMENT, name=Surf-2
_Surf-2_S4, S4
_Surf-2_S2, S2
** Section: Section-1
*Solid Section, elset=Set-8, material=Material-1
,
*End Part
**  
**
** ASSEMBLY
**
*Assembly, name=Assembly
**  
*Instance, name=Part-1-1, part=Part-1
*End Instance
**  
*Nset, nset=Set-1, instance=Part-1-1
   1,   4,   5,   9, 114, 115, 116, 117, 118, 119, 120, 121, 122, 123, 124, 125
 126, 127, 128, 129, 130, 131, 132, 133, 134, 135, 136, 137, 138, 139, 140, 171
 172, 173, 207, 208, 209, 210, 211, 212, 213, 214, 215, 216, 217, 218, 219, 220
 221, 222, 223, 224, 225, 226, 227, 228, 229, 230, 231, 232, 233, 234, 235, 236
 237, 238, 239, 240, 241, 242, 243, 244, 245, 246, 247, 248, 249, 250, 251, 252
 253,
*Elset, elset=Set-1, instance=Part-1-1
    1,   29,   57,   85,  113,  141,  169,  197,  225,  253,  281,  309,  337,  365,  393,  421
  449,  477,  505,  533,  561,  589,  617,  645,  673,  701,  729,  757,  785,  813,  841,  869
 1036, 1064, 1092, 1120, 1148, 1176, 1204, 1232, 1260, 1288, 1316, 1344, 1372, 1400, 1428, 1456
 1484, 1512, 1540, 1568, 1596, 1624, 1652, 1680, 1708, 1736, 1764, 1792, 1820, 1848, 1876, 1904
 1932, 1960, 1988, 2016, 2044, 2072, 2100, 2128, 2156, 2184, 2212, 2240, 2268, 2296, 2324, 2352
*Nset, nset=Set-2, instance=Part-1-1
  18,  21,  26,  27, 651, 652, 653, 654, 655, 656, 657, 658, 659, 660, 661, 662
 663, 664, 665, 666, 667, 668, 669, 670, 671, 672, 673, 674, 675, 676, 677, 678
 679, 680, 681, 682, 683, 684, 685, 686, 687, 688, 689, 690, 691, 692, 693, 694
 695, 696, 697, 840, 841, 842, 843, 844, 845, 846, 847, 848, 849, 850, 851, 852
 853, 854, 855, 856, 857, 858, 859, 860, 861, 862, 863, 864, 865, 866, 989, 990
 991,
*Elset, elset=Set-2, instance=Part-1-1
 3617, 3645, 3673, 3701, 3729, 3757, 3785, 3813, 3841, 3869, 3897, 3925, 3953, 3981, 4009, 4037
 4065, 4093, 4121, 4149, 4177, 4205, 4233, 4261, 4289, 4317, 4345, 4373, 4401, 4429, 4457, 4485
 4513, 4541, 4569, 4597, 4625, 4653, 4681, 4709, 4737, 4765, 4793, 4821, 4849, 4877, 4905, 4933
 6028, 6056, 6084, 6112, 6140, 6168, 6196, 6224, 6252, 6280, 6308, 6336, 6364, 6392, 6420, 6448
 6476, 6504, 6532, 6560, 6588, 6616, 6644, 6672, 6700, 6728, 6756, 6784, 7036, 7064, 7092, 7120
*Nset, nset=Set-3, instance=Part-1-1
   1,   4,   5,   9, 114, 115, 116, 117, 118, 119, 120, 121, 122, 123, 124, 125
 126, 127, 128, 129, 130, 131, 132, 133, 134, 135, 136, 137, 138, 139, 140, 171
 172, 173, 207, 208, 209, 210, 211, 212, 213, 214, 215, 216, 217, 218, 219, 220
 221, 222, 223, 224, 225, 226, 227, 228, 229, 230, 231, 232, 233, 234, 235, 236
 237, 238, 239, 240, 241, 242, 243, 244, 245, 246, 247, 248, 249, 250, 251, 252
 253,
*Elset, elset=Set-3, instance=Part-1-1
    1,   29,   57,   85,  113,  141,  169,  197,  225,  253,  281,  309,  337,  365,  393,  421
  449,  477,  505,  533,  561,  589,  617,  645,  673,  701,  729,  757,  785,  813,  841,  869
 1036, 1064, 1092, 1120, 1148, 1176, 1204, 1232, 1260, 1288, 1316, 1344, 1372, 1400, 1428, 1456
 1484, 1512, 1540, 1568, 1596, 1624, 1652, 1680, 1708, 1736, 1764, 1792, 1820, 1848, 1876, 1904
 1932, 1960, 1988, 2016, 2044, 2072, 2100, 2128, 2156, 2184, 2212, 2240, 2268, 2296, 2324, 2352
*Nset, nset=TIP, instance=Part-1-1
 16,
*End Assembly
** 
** MATERIALS
** 
*Material, name=Material-1
*Elastic
2000., 0.3
** ----------------------------------------------------------------
** 
** STEP: Step-1
** 
*Step, name=Step-1, nlgeom=NO
*Static
1., 1., 1e-05, 1.
** 
** BOUNDARY CONDITIONS
** 
** Name: BC-1 Type: Displacement/Rotation
*Boundary
Set-2, 1, 1
Set-2, 2, 2, 0.0001
** Name: BC-2 Type: Displacement/Rotation
*Boundary
Set-3, 1, 1
Set-3, 2, 2
** 
** OUTPUT REQUESTS
** 
*Restart, write, frequency=0
** 
** FIELD OUTPUT: F-Output-1
** 
*Output, field, variable=PRESELECT
** 
** HISTORY OUTPUT: H-Output-1
** 
*Output, history, variable=PRESELECT
*End Step
